src/examples/case14_twoarea/two_area_nolimit/results/res_branch_2.csv
branch,from_bus,to_bus,X,B,G,Bfr,Bto,p_from,p_to,q_from,q_to,p_loss,q_loss,s_from,s_to,rate_a,ang_deg,angmin,angmax
7,4,5,0.07018333333333335,-13.750861129582134,2.615635185180549,0.0,0.0,-0.49301550189335386,0.49610643092481815,0.021124436706586983,-0.004874870974381513,0.0030909290314642957,0.01624956573220547,0.4934678580549357,0.49613038122249503,Inf,-1.8904898410670743,-60.0001403060998,60.0001403060998
4,2,4,0.2938666666666667,-3.274849999726149,0.6475778135801491,0.028333333333333335,0.028333333333333335,0.4909506142828709,-0.47798694536032665,-0.043563284798107386,0.04868857942823839,0.012963668922544247,0.005125294630131005,0.4928795648504098,0.4804602977371135,Inf,7.816453362292911,-60.0001403060998,60.0001403060998
2,1,5,0.37173333333333336,-2.634446441553089,0.3829065851070123,0.041,0.041,0.6476582867621804,-0.6273224899829271,0.012575523077394873,0.03768168797336286,0.020335796779253346,0.050257211050757734,0.6477803641608727,0.6284531932028841,Inf,12.555386242167447,-60.0001403060998,60.0001403060998
3,2,3,0.32995,-2.9705137433791546,0.423047252012082,0.0365,0.0365,0.5502751849812278,-0.5371009879738337,-0.02157833354493814,0.03633895769681714,0.013174197007394195,0.014760624151878995,0.5506981057573207,0.5383288875111192,Inf,9.771136195735947,-60.0001403060998,60.0001403060998
5,2,5,0.28980000000000006,-3.32235273589815,0.6528916090731525,0.028833333333333336,0.028833333333333336,0.3774082336451393,-0.3698774265711911,-0.05427968675280895,0.03077396197380408,0.007530807073948209,-0.023505724779004866,0.38129156719907553,0.3711554221919599,Inf,5.925963521225838,-60.0001403060998,60.0001403060998
6,3,4,0.28505,-3.324436966625986,0.7815138436541214,0.010666666666666668,0.010666666666666668,-0.11976286432857666,0.12071969074746551,0.013965104722015207,-0.03230080463429863,0.0009568264188888481,-0.018335699912283423,0.12057432488752286,0.12496633832431371,Inf,-1.9546828334430364,-60.0001403060998,60.0001403060998
1,1,2,0.09861666666666669,-9.763222778777191,1.918653954227162,0.044000000000000004,0.044000000000000004,1.2975392007247104,-1.2684766723603589,-0.012575532993449497,0.06345200853561031,0.029062528364351525,0.050876475542160814,1.297600139275343,1.2700626857402009,Inf,6.629422720941608,-60.0001403060998,60.0001403060998
